<routes>
    <vTypeDistribution id="mixed">
        <vType id="car" vClass="passenger" speedDev="0.2" speedFactor="1.1" latAlignment="compact" probability="0.90"/>
        <vType id="bigcar" vClass="trailer" speedDev="0.2" speedFactor="1.1" latAlignment="compact" probability="0.10"/>
    </vTypeDistribution>
	
    <route id="r1" edges="E15 719033695#2.416 E22 E23.247 E0.32333.37236 E0.32333.37752 E11"/>
    <route id="r2" edges="E15 719033695#2.416 E22 E22.185 E1.1331 E1.2049 E52 E54 E6"/>
    <route id="r3" edges="E15 719033695#2.416 E22 E22.185 E1.1331 E1.2049 E1.2049.10936 E1.2049.11169 E46 E48 E5"/>
    <route id="r4" edges="E15 719033695#2.416 E22 E22.185 E1.1331 E1.2049 E1.2049.10936 E1.2049.11169 E1.2049.18136 E1.2049.18448 E17 E17.144 E17.485 199861688#4.258 E19"/>
    <route id="r5" edges="E15 719033695#2.416 E22 E22.185 E1.1331 E1.2049 E1.2049.10936 E1.2049.11169 E1.2049.18136 E1.2049.18448 E17 E16.187 E10.552 199861689#7 E16"/>
    <route id="r6" edges="E15 719033695#2.416 E22 E22.185 E1.1331 E1.2049 E1.2049.10936 E1.2049.11169 E1.2049.18136 E1.2049.18448 E1.2049.18448.8293 E1.2049.18448.8698 E1.2049.18448.9141 E40 E42 E3"/>
    <route id="r7" edges="E15 719033695#2.416 E22 E22.185 E1.1331 E1.2049 E1.2049.10936 E1.2049.11169 E1.2049.18136 E1.2049.18448 E1.2049.18448.8293 E1.2049.18448.8698 E1.2049.18448.9141 E1.37852 E1.38124 E34 E35 E4"/>
    <route id="r8" edges="E15 719033695#2.416 E22 E22.185 E1.1331 E1.2049 E1.2049.10936 E1.2049.11169 E1.2049.18136 E1.2049.18448 E1.2049.18448.8293 E1.2049.18448.8698 E1.2049.18448.9141 E1.37852 E1.38124 E1.38124.12150 E1.38124.12551 E29 E30 E8"/>
    <route id="r9" edges="E15 719033695#2.416 E22 E22.185 E1.1331 E1.2049 E1.2049.10936 E1.2049.11169 E1.2049.18136 E1.2049.18448 E1.2049.18448.8293 E1.2049.18448.8698 E1.2049.18448.9141 E1.37852 E1.38124 E1.38124.12150 E1.38124.12551 E1.38124.12551.14301 E1.38124.12551.14665 E9 E9.325 E9.587 337004188.720 E25"/>
    <route id="r10" edges="E15 719033695#2.416 E22 E22.185 E1.1331 E1.2049 E1.2049.10936 E1.2049.11169 E1.2049.18136 E1.2049.18448 E1.2049.18448.8293 E1.2049.18448.8698 E1.2049.18448.9141 E1.37852 E1.38124 E1.38124.12150 E1.38124.12551 E1.38124.12551.14301 E1.38124.12551.14665 E9 E8.318 E8.757 337004171#1 E20"/>
    <route id="r11" edges="E15 719033695#2.416 E22 E22.185 E1.1331 E1.2049 E1.2049.10936 E1.2049.11169 E1.2049.18136 E1.2049.18448 E1.2049.18448.8293 E1.2049.18448.8698 E1.2049.18448.9141 E1.37852 E1.38124 E1.38124.12150 E1.38124.12551 E1.38124.12551.14301 E1.38124.12551.14665 E1.38124.12551.14665.3701 E1.38124.12551.14665.4387 E1.38124.12551.14665.4558 E23"/>
    <route id="r12" edges="E11 E1 E24 E25.107 E25.409 719033692#0.229 E15"/>
    <route id="r13" edges="E11 E1 E24 E24.94 E18.467 719033689.710 E13"/>
    <route id="r14" edges="E11 E1 E1.349 E1.631 E1.1331 E1.2049 E52 E54 E6"/>
    <route id="r15" edges="E11 E1 E1.349 E1.631 E1.1331 E1.2049 E1.2049.10936 E1.2049.11169 E46 E48 E5"/>
    <route id="r16" edges="E11 E1 E1.349 E1.631 E1.1331 E1.2049 E1.2049.10936 E1.2049.11169 E1.2049.18136 E1.2049.18448 E17 E17.144 E17.485 199861688#4.258 E19"/>
    <route id="r17" edges="E11 E1 E1.349 E1.631 E1.1331 E1.2049 E1.2049.10936 E1.2049.11169 E1.2049.18136 E1.2049.18448 E17 E16.187 E10.552 199861689#7 E16"/>
    <route id="r18" edges="E11 E1 E1.349 E1.631 E1.1331 E1.2049 E1.2049.10936 E1.2049.11169 E1.2049.18136 E1.2049.18448 E1.2049.18448.8293 E1.2049.18448.8698 E1.2049.18448.9141 E40 E42 E3"/>
    <route id="r19" edges="E11 E1 E1.349 E1.631 E1.1331 E1.2049 E1.2049.10936 E1.2049.11169 E1.2049.18136 E1.2049.18448 E1.2049.18448.8293 E1.2049.18448.8698 E1.2049.18448.9141 E1.37852 E1.38124 E34 E35 E4"/>
    <route id="r20" edges="E11 E1 E1.349 E1.631 E1.1331 E1.2049 E1.2049.10936 E1.2049.11169 E1.2049.18136 E1.2049.18448 E1.2049.18448.8293 E1.2049.18448.8698 E1.2049.18448.9141 E1.37852 E1.38124 E1.38124.12150 E1.38124.12551 E29 E30 E8"/>
    <route id="r21" edges="E11 E1 E1.349 E1.631 E1.1331 E1.2049 E1.2049.10936 E1.2049.11169 E1.2049.18136 E1.2049.18448 E1.2049.18448.8293 E1.2049.18448.8698 E1.2049.18448.9141 E1.37852 E1.38124 E1.38124.12150 E1.38124.12551 E1.38124.12551.14301 E1.38124.12551.14665 E9 E9.325 E9.587 337004188.720 E25"/>
    <route id="r22" edges="E11 E1 E1.349 E1.631 E1.1331 E1.2049 E1.2049.10936 E1.2049.11169 E1.2049.18136 E1.2049.18448 E1.2049.18448.8293 E1.2049.18448.8698 E1.2049.18448.9141 E1.37852 E1.38124 E1.38124.12150 E1.38124.12551 E1.38124.12551.14301 E1.38124.12551.14665 E9 E8.318 E8.757 337004171#1 E20"/>
    <route id="r23" edges="E11 E1 E1.349 E1.631 E1.1331 E1.2049 E1.2049.10936 E1.2049.11169 E1.2049.18136 E1.2049.18448 E1.2049.18448.8293 E1.2049.18448.8698 E1.2049.18448.9141 E1.37852 E1.38124 E1.38124.12150 E1.38124.12551 E1.38124.12551.14301 E1.38124.12551.14665 E1.38124.12551.14665.3701 E1.38124.12551.14665.4387 E1.38124.12551.14665.4558 E23"/>
    <route id="r24" edges="E13 719033690.3616 E21 E21.124 E0.32333.37752 E11"/>
    <route id="r25" edges="E13 719033690.3616 E21 E20.145 E1.631 E1.1331 E1.2049 E52 E54 E6"/>
    <route id="r26" edges="E13 719033690.3616 E21 E20.145 E1.631 E1.1331 E1.2049 E1.2049.10936 E1.2049.11169 E46 E48 E5"/>
    <route id="r27" edges="E13 719033690.3616 E21 E20.145 E1.631 E1.1331 E1.2049 E1.2049.10936 E1.2049.11169 E1.2049.18136 E1.2049.18448 E17 E17.144 E17.485 199861688#4.258 E19"/>
    <route id="r28" edges="E13 719033690.3616 E21 E20.145 E1.631 E1.1331 E1.2049 E1.2049.10936 E1.2049.11169 E1.2049.18136 E1.2049.18448 E17 E16.187 E10.552 199861689#7 E16"/>
    <route id="r29" edges="E13 719033690.3616 E21 E20.145 E1.631 E1.1331 E1.2049 E1.2049.10936 E1.2049.11169 E1.2049.18136 E1.2049.18448 E1.2049.18448.8293 E1.2049.18448.8698 E1.2049.18448.9141 E40 E42 E3"/>
    <route id="r30" edges="E13 719033690.3616 E21 E20.145 E1.631 E1.1331 E1.2049 E1.2049.10936 E1.2049.11169 E1.2049.18136 E1.2049.18448 E1.2049.18448.8293 E1.2049.18448.8698 E1.2049.18448.9141 E1.37852 E1.38124 E34 E35 E4"/>
    <route id="r31" edges="E13 719033690.3616 E21 E20.145 E1.631 E1.1331 E1.2049 E1.2049.10936 E1.2049.11169 E1.2049.18136 E1.2049.18448 E1.2049.18448.8293 E1.2049.18448.8698 E1.2049.18448.9141 E1.37852 E1.38124 E1.38124.12150 E1.38124.12551 E29 E30 E8"/>
    <route id="r32" edges="E13 719033690.3616 E21 E20.145 E1.631 E1.1331 E1.2049 E1.2049.10936 E1.2049.11169 E1.2049.18136 E1.2049.18448 E1.2049.18448.8293 E1.2049.18448.8698 E1.2049.18448.9141 E1.37852 E1.38124 E1.38124.12150 E1.38124.12551 E1.38124.12551.14301 E1.38124.12551.14665 E9 E9.325 E9.587 337004188.720 E25"/>
    <route id="r33" edges="E13 719033690.3616 E21 E20.145 E1.631 E1.1331 E1.2049 E1.2049.10936 E1.2049.11169 E1.2049.18136 E1.2049.18448 E1.2049.18448.8293 E1.2049.18448.8698 E1.2049.18448.9141 E1.37852 E1.38124 E1.38124.12150 E1.38124.12551 E1.38124.12551.14301 E1.38124.12551.14665 E9 E8.318 E8.757 337004171#1 E20"/>
    <route id="r34" edges="E13 719033690.3616 E21 E20.145 E1.631 E1.1331 E1.2049 E1.2049.10936 E1.2049.11169 E1.2049.18136 E1.2049.18448 E1.2049.18448.8293 E1.2049.18448.8698 E1.2049.18448.9141 E1.37852 E1.38124 E1.38124.12150 E1.38124.12551 E1.38124.12551.14301 E1.38124.12551.14665 E1.38124.12551.14665.3701 E1.38124.12551.14665.4387 E1.38124.12551.14665.4558 E23"/>
    <route id="r35" edges="E6 E53 E51 E0.32333.25348 E0.32333.36044 E18 E19.193 E25.409 719033692#0.229 E15"/>
    <route id="r36" edges="E6 E53 E51 E0.32333.25348 E0.32333.36044 E0.32333.36783 E0.32333.37236 E0.32333.37752 E11"/>
    <route id="r37" edges="E6 E53 E51 E0.32333.25348 E0.32333.36044 E18 E18.167 E18.467 719033689.710 E13"/>
    <route id="r38" edges="E6 E53 E50 E1.2049.11169 E46 E48 E5"/>
    <route id="r39" edges="E6 E53 E50 E1.2049.11169 E1.2049.18136 E1.2049.18448 E17 E17.144 E17.485 199861688#4.258 E19"/>
    <route id="r40" edges="E6 E53 E50 E1.2049.11169 E1.2049.18136 E1.2049.18448 E17 E16.187 E10.552 199861689#7 E16"/>
    <route id="r41" edges="E6 E53 E50 E1.2049.11169 E1.2049.18136 E1.2049.18448 E1.2049.18448.8293 E1.2049.18448.8698 E1.2049.18448.9141 E40 E42 E3"/>
    <route id="r42" edges="E6 E53 E50 E1.2049.11169 E1.2049.18136 E1.2049.18448 E1.2049.18448.8293 E1.2049.18448.8698 E1.2049.18448.9141 E1.37852 E1.38124 E34 E35 E4"/>
    <route id="r43" edges="E6 E53 E50 E1.2049.11169 E1.2049.18136 E1.2049.18448 E1.2049.18448.8293 E1.2049.18448.8698 E1.2049.18448.9141 E1.37852 E1.38124 E1.38124.12150 E1.38124.12551 E29 E30 E8"/>
    <route id="r44" edges="E6 E53 E50 E1.2049.11169 E1.2049.18136 E1.2049.18448 E1.2049.18448.8293 E1.2049.18448.8698 E1.2049.18448.9141 E1.37852 E1.38124 E1.38124.12150 E1.38124.12551 E1.38124.12551.14301 E1.38124.12551.14665 E9 E9.325 E9.587 337004188.720 E25"/>
    <route id="r45" edges="E6 E53 E50 E1.2049.11169 E1.2049.18136 E1.2049.18448 E1.2049.18448.8293 E1.2049.18448.8698 E1.2049.18448.9141 E1.37852 E1.38124 E1.38124.12150 E1.38124.12551 E1.38124.12551.14301 E1.38124.12551.14665 E9 E8.318 E8.757 337004171#1 E20"/>
    <route id="r46" edges="E6 E53 E50 E1.2049.11169 E1.2049.18136 E1.2049.18448 E1.2049.18448.8293 E1.2049.18448.8698 E1.2049.18448.9141 E1.37852 E1.38124 E1.38124.12150 E1.38124.12551 E1.38124.12551.14301 E1.38124.12551.14665 E1.38124.12551.14665.3701 E1.38124.12551.14665.4387 E1.38124.12551.14665.4558 E23"/>
    <route id="r47" edges="E5 E47 E45 E0.32333.18080 E0.32333.25024 E0.32333.25348 E0.32333.36044 E18 E19.193 E25.409 719033692#0.229 E15"/>
    <route id="r48" edges="E5 E47 E45 E0.32333.18080 E0.32333.25024 E0.32333.25348 E0.32333.36044 E0.32333.36783 E0.32333.37236 E0.32333.37752 E11"/>
    <route id="r49" edges="E5 E47 E45 E0.32333.18080 E0.32333.25024 E0.32333.25348 E0.32333.36044 E18 E18.167 E18.467 719033689.710 E13"/>
    <route id="r50" edges="E5 E47 E45 E0.32333.18080 E49 E54 E6"/>
    <route id="r51" edges="E5 E47 E44 E1.2049.18448 E17 E17.144 E17.485 199861688#4.258 E19"/>
    <route id="r52" edges="E5 E47 E44 E1.2049.18448 E17 E16.187 E10.552 199861689#7 E16"/>
    <route id="r53" edges="E5 E47 E44 E1.2049.18448 E1.2049.18448.8293 E1.2049.18448.8698 E1.2049.18448.9141 E40 E42 E3"/>
    <route id="r54" edges="E5 E47 E44 E1.2049.18448 E1.2049.18448.8293 E1.2049.18448.8698 E1.2049.18448.9141 E1.37852 E1.38124 E34 E35 E4"/>
    <route id="r55" edges="E5 E47 E44 E1.2049.18448 E1.2049.18448.8293 E1.2049.18448.8698 E1.2049.18448.9141 E1.37852 E1.38124 E1.38124.12150 E1.38124.12551 E29 E30 E8"/>
    <route id="r56" edges="E5 E47 E44 E1.2049.18448 E1.2049.18448.8293 E1.2049.18448.8698 E1.2049.18448.9141 E1.37852 E1.38124 E1.38124.12150 E1.38124.12551 E1.38124.12551.14301 E1.38124.12551.14665 E9 E9.325 E9.587 337004188.720 E25"/>
    <route id="r57" edges="E5 E47 E44 E1.2049.18448 E1.2049.18448.8293 E1.2049.18448.8698 E1.2049.18448.9141 E1.37852 E1.38124 E1.38124.12150 E1.38124.12551 E1.38124.12551.14301 E1.38124.12551.14665 E9 E8.318 E8.757 337004171#1 E20"/>
    <route id="r58" edges="E5 E47 E44 E1.2049.18448 E1.2049.18448.8293 E1.2049.18448.8698 E1.2049.18448.9141 E1.37852 E1.38124 E1.38124.12150 E1.38124.12551 E1.38124.12551.14301 E1.38124.12551.14665 E1.38124.12551.14665.3701 E1.38124.12551.14665.4387 E1.38124.12551.14665.4558 E23"/>
    <route id="r59" edges="E19 199861689#3 E14 E15.170 E0.32333.8754 E0.32333.9203 E0.32333.17767 E0.32333.18080 E0.32333.25024 E0.32333.25348 E0.32333.36044 E18 E19.193 E25.409 719033692#0.229 E15"/>
    <route id="r60" edges="E19 199861689#3 E14 E15.170 E0.32333.8754 E0.32333.9203 E0.32333.17767 E0.32333.18080 E0.32333.25024 E0.32333.25348 E0.32333.36044 E0.32333.36783 E0.32333.37236 E0.32333.37752 E11"/>
    <route id="r61" edges="E19 199861689#3 E14 E15.170 E0.32333.8754 E0.32333.9203 E0.32333.17767 E0.32333.18080 E0.32333.25024 E0.32333.25348 E0.32333.36044 E18 E18.167 E18.467 719033689.710 E13"/>
    <route id="r62" edges="E19 199861689#3 E14 E15.170 E0.32333.8754 E0.32333.9203 E0.32333.17767 E0.32333.18080 E49 E54 E6"/>
    <route id="r63" edges="E19 199861689#3 E14 E15.170 E0.32333.8754 E0.32333.9203 E43 E48 E5"/>
    <route id="r64" edges="E19 199861689#3 E14 E14.139 E1.2049.18448.9141 E40 E42 E3"/>
    <route id="r65" edges="E19 199861689#3 E14 E14.139 E1.2049.18448.9141 E1.37852 E1.38124 E34 E35 E4"/>
    <route id="r66" edges="E19 199861689#3 E14 E14.139 E1.2049.18448.9141 E1.37852 E1.38124 E1.38124.12150 E1.38124.12551 E29 E30 E8"/>
    <route id="r67" edges="E19 199861689#3 E14 E14.139 E1.2049.18448.9141 E1.37852 E1.38124 E1.38124.12150 E1.38124.12551 E1.38124.12551.14301 E1.38124.12551.14665 E9 E9.325 E9.587 337004188.720 E25"/>
    <route id="r68" edges="E19 199861689#3 E14 E14.139 E1.2049.18448.9141 E1.37852 E1.38124 E1.38124.12150 E1.38124.12551 E1.38124.12551.14301 E1.38124.12551.14665 E9 E8.318 E8.757 337004171#1 E20"/>
    <route id="r69" edges="E19 199861689#3 E14 E14.139 E1.2049.18448.9141 E1.37852 E1.38124 E1.38124.12150 E1.38124.12551 E1.38124.12551.14301 E1.38124.12551.14665 E1.38124.12551.14665.3701 E1.38124.12551.14665.4387 E1.38124.12551.14665.4558 E23"/>
    <route id="r70" edges="E16 199861688#0 E12 E13.241 E0.32333.9203 E0.32333.17767 E0.32333.18080 E0.32333.25024 E0.32333.25348 E0.32333.36044 E18 E19.193 E25.409 719033692#0.229 E15"/>
    <route id="r71" edges="E16 199861688#0 E12 E13.241 E0.32333.9203 E0.32333.17767 E0.32333.18080 E0.32333.25024 E0.32333.25348 E0.32333.36044 E0.32333.36783 E0.32333.37236 E0.32333.37752 E11"/>
    <route id="r72" edges="E16 199861688#0 E12 E13.241 E0.32333.9203 E0.32333.17767 E0.32333.18080 E0.32333.25024 E0.32333.25348 E0.32333.36044 E18 E18.167 E18.467 719033689.710 E13"/>
    <route id="r73" edges="E16 199861688#0 E12 E13.241 E0.32333.9203 E0.32333.17767 E0.32333.18080 E49 E54 E6"/>
    <route id="r74" edges="E16 199861688#0 E12 E13.241 E0.32333.9203 E43 E48 E5"/>
    <route id="r75" edges="E16 199861688#0 E12 E12.228 E1.2049.18448.8698 E1.2049.18448.9141 E40 E42 E3"/>
    <route id="r76" edges="E16 199861688#0 E12 E12.228 E1.2049.18448.8698 E1.2049.18448.9141 E1.37852 E1.38124 E34 E35 E4"/>
    <route id="r77" edges="E16 199861688#0 E12 E12.228 E1.2049.18448.8698 E1.2049.18448.9141 E1.37852 E1.38124 E1.38124.12150 E1.38124.12551 E29 E30 E8"/>
    <route id="r78" edges="E16 199861688#0 E12 E12.228 E1.2049.18448.8698 E1.2049.18448.9141 E1.37852 E1.38124 E1.38124.12150 E1.38124.12551 E1.38124.12551.14301 E1.38124.12551.14665 E9 E9.325 E9.587 337004188.720 E25"/>
    <route id="r79" edges="E16 199861688#0 E12 E12.228 E1.2049.18448.8698 E1.2049.18448.9141 E1.37852 E1.38124 E1.38124.12150 E1.38124.12551 E1.38124.12551.14301 E1.38124.12551.14665 E9 E8.318 E8.757 337004171#1 E20"/>
    <route id="r80" edges="E16 199861688#0 E12 E12.228 E1.2049.18448.8698 E1.2049.18448.9141 E1.37852 E1.38124 E1.38124.12150 E1.38124.12551 E1.38124.12551.14301 E1.38124.12551.14665 E1.38124.12551.14665.3701 E1.38124.12551.14665.4387 E1.38124.12551.14665.4558 E23"/>
    <route id="r81" edges="E3 E41 E39 E0.32333 E0.32333.8405 E0.32333.8754 E0.32333.9203 E0.32333.17767 E0.32333.18080 E0.32333.25024 E0.32333.25348 E0.32333.36044 E18 E19.193 E25.409 719033692#0.229 E15"/>
    <route id="r82" edges="E3 E41 E39 E0.32333 E0.32333.8405 E0.32333.8754 E0.32333.9203 E0.32333.17767 E0.32333.18080 E0.32333.25024 E0.32333.25348 E0.32333.36044 E0.32333.36783 E0.32333.37236 E0.32333.37752 E11"/>
    <route id="r83" edges="E3 E41 E39 E0.32333 E0.32333.8405 E0.32333.8754 E0.32333.9203 E0.32333.17767 E0.32333.18080 E0.32333.25024 E0.32333.25348 E0.32333.36044 E18 E18.167 E18.467 719033689.710 E13"/>
    <route id="r84" edges="E3 E41 E39 E0.32333 E0.32333.8405 E0.32333.8754 E0.32333.9203 E0.32333.17767 E0.32333.18080 E49 E54 E6"/>
    <route id="r85" edges="E3 E41 E39 E0.32333 E0.32333.8405 E0.32333.8754 E0.32333.9203 E43 E48 E5"/>
    <route id="r86" edges="E3 E41 E39 E0.32333 E10 E11.118 E17.485 199861688#4.258 E19"/>
    <route id="r87" edges="E3 E41 E39 E0.32333 E10 E10.81 E10.552 199861689#7 E16"/>
    <route id="r88" edges="E3 E41 E38 E1.38124 E34 E35 E4"/>
    <route id="r89" edges="E3 E41 E38 E1.38124 E1.38124.12150 E1.38124.12551 E29 E30 E8"/>
    <route id="r90" edges="E3 E41 E38 E1.38124 E1.38124.12150 E1.38124.12551 E1.38124.12551.14301 E1.38124.12551.14665 E9 E9.325 E9.587 337004188.720 E25"/>
    <route id="r91" edges="E3 E41 E38 E1.38124 E1.38124.12150 E1.38124.12551 E1.38124.12551.14301 E1.38124.12551.14665 E9 E8.318 E8.757 337004171#1 E20"/>
    <route id="r92" edges="E3 E41 E38 E1.38124 E1.38124.12150 E1.38124.12551 E1.38124.12551.14301 E1.38124.12551.14665 E1.38124.12551.14665.3701 E1.38124.12551.14665.4387 E1.38124.12551.14665.4558 E23"/>
    <route id="r93" edges="E4 E36 E33 E0.19858 E0.32034 E0.32333 E0.32333.8405 E0.32333.8754 E0.32333.9203 E0.32333.17767 E0.32333.18080 E0.32333.25024 E0.32333.25348 E0.32333.36044 E18 E19.193 E25.409 719033692#0.229 E15"/>
    <route id="r94" edges="E4 E36 E33 E0.19858 E0.32034 E0.32333 E0.32333.8405 E0.32333.8754 E0.32333.9203 E0.32333.17767 E0.32333.18080 E0.32333.25024 E0.32333.25348 E0.32333.36044 E0.32333.36783 E0.32333.37236 E0.32333.37752 E11"/>
    <route id="r95" edges="E4 E36 E33 E0.19858 E0.32034 E0.32333 E0.32333.8405 E0.32333.8754 E0.32333.9203 E0.32333.17767 E0.32333.18080 E0.32333.25024 E0.32333.25348 E0.32333.36044 E18 E18.167 E18.467 719033689.710 E13"/>
    <route id="r96" edges="E4 E36 E33 E0.19858 E0.32034 E0.32333 E0.32333.8405 E0.32333.8754 E0.32333.9203 E0.32333.17767 E0.32333.18080 E49 E54 E6"/>
    <route id="r97" edges="E4 E36 E33 E0.19858 E0.32034 E0.32333 E0.32333.8405 E0.32333.8754 E0.32333.9203 E43 E48 E5"/>
    <route id="r98" edges="E4 E36 E33 E0.19858 E0.32034 E0.32333 E10 E11.118 E17.485 199861688#4.258 E19"/>
    <route id="r99" edges="E4 E36 E33 E0.19858 E0.32034 E0.32333 E10 E10.81 E10.552 199861689#7 E16"/>
    <route id="r100" edges="E4 E36 E33 E0.19858 E37 E42 E3"/>
    <route id="r101" edges="E4 E36 E32 E1.38124.12551 E29 E30 E8"/>
    <route id="r102" edges="E4 E36 E32 E1.38124.12551 E1.38124.12551.14301 E1.38124.12551.14665 E9 E9.325 E9.587 337004188.720 E25"/>
    <route id="r103" edges="E4 E36 E32 E1.38124.12551 E1.38124.12551.14301 E1.38124.12551.14665 E9 E8.318 E8.757 337004171#1 E20"/>
    <route id="r104" edges="E4 E36 E32 E1.38124.12551 E1.38124.12551.14301 E1.38124.12551.14665 E1.38124.12551.14665.3701 E1.38124.12551.14665.4387 E1.38124.12551.14665.4558 E23"/>
    <route id="r105" edges="E8 E8.627 -E30 -E30.57 E28 E0.5333 E0.19627 E0.19858 E0.32034 E0.32333 E0.32333.8405 E0.32333.8754 E0.32333.9203 E0.32333.17767 E0.32333.18080 E0.32333.25024 E0.32333.25348 E0.32333.36044 E18 E19.193 E25.409 719033692#0.229 E15"/>
    <route id="r106" edges="E8 E8.627 -E30 -E30.57 E28 E0.5333 E0.19627 E0.19858 E0.32034 E0.32333 E0.32333.8405 E0.32333.8754 E0.32333.9203 E0.32333.17767 E0.32333.18080 E0.32333.25024 E0.32333.25348 E0.32333.36044 E0.32333.36783 E0.32333.37236 E0.32333.37752 E11"/>
    <route id="r107" edges="E8 E8.627 -E30 -E30.57 E28 E0.5333 E0.19627 E0.19858 E0.32034 E0.32333 E0.32333.8405 E0.32333.8754 E0.32333.9203 E0.32333.17767 E0.32333.18080 E0.32333.25024 E0.32333.25348 E0.32333.36044 E18 E18.167 E18.467 719033689.710 E13"/>
    <route id="r108" edges="E8 E8.627 -E30 -E30.57 E28 E0.5333 E0.19627 E0.19858 E0.32034 E0.32333 E0.32333.8405 E0.32333.8754 E0.32333.9203 E0.32333.17767 E0.32333.18080 E49 E54 E6"/>
    <route id="r109" edges="E8 E8.627 -E30 -E30.57 E28 E0.5333 E0.19627 E0.19858 E0.32034 E0.32333 E0.32333.8405 E0.32333.8754 E0.32333.9203 E43 E48 E5"/>
    <route id="r110" edges="E8 E8.627 -E30 -E30.57 E28 E0.5333 E0.19627 E0.19858 E0.32034 E0.32333 E10 E11.118 E17.485 199861688#4.258 E19"/>
    <route id="r111" edges="E8 E8.627 -E30 -E30.57 E28 E0.5333 E0.19627 E0.19858 E0.32034 E0.32333 E10 E10.81 E10.552 199861689#7 E16"/>
    <route id="r112" edges="E8 E8.627 -E30 -E30.57 E28 E0.5333 E0.19627 E0.19858 E37 E42 E3"/>
    <route id="r113" edges="E8 E8.627 -E30 -E30.57 E28 E0.5333 E31 E35 E4"/>
    <route id="r114" edges="E8 E8.627 -E30 -E30.57 E27 E1.38124.12551.14665 E9 E9.325 E9.587 337004188.720 E25"/>
    <route id="r115" edges="E8 E8.627 -E30 -E30.57 E27 E1.38124.12551.14665 E9 E8.318 E8.757 337004171#1 E20"/>
    <route id="r116" edges="E8 E8.627 -E30 -E30.57 E27 E1.38124.12551.14665 E1.38124.12551.14665.3701 E1.38124.12551.14665.4387 E1.38124.12551.14665.4558 E23"/>
    <route id="r117" edges="E25 337004201.1931 E7 E6.275 E0.916 E0.1396 E0.4824 E0.5333 E0.19627 E0.19858 E0.32034 E0.32333 E0.32333.8405 E0.32333.8754 E0.32333.9203 E0.32333.17767 E0.32333.18080 E0.32333.25024 E0.32333.25348 E0.32333.36044 E18 E19.193 E25.409 719033692#0.229 E15"/>
    <route id="r118" edges="E25 337004201.1931 E7 E6.275 E0.916 E0.1396 E0.4824 E0.5333 E0.19627 E0.19858 E0.32034 E0.32333 E0.32333.8405 E0.32333.8754 E0.32333.9203 E0.32333.17767 E0.32333.18080 E0.32333.25024 E0.32333.25348 E0.32333.36044 E0.32333.36783 E0.32333.37236 E0.32333.37752 E11"/>
    <route id="r119" edges="E25 337004201.1931 E7 E6.275 E0.916 E0.1396 E0.4824 E0.5333 E0.19627 E0.19858 E0.32034 E0.32333 E0.32333.8405 E0.32333.8754 E0.32333.9203 E0.32333.17767 E0.32333.18080 E0.32333.25024 E0.32333.25348 E0.32333.36044 E18 E18.167 E18.467 719033689.710 E13"/>
    <route id="r120" edges="E25 337004201.1931 E7 E6.275 E0.916 E0.1396 E0.4824 E0.5333 E0.19627 E0.19858 E0.32034 E0.32333 E0.32333.8405 E0.32333.8754 E0.32333.9203 E0.32333.17767 E0.32333.18080 E49 E54 E6"/>
    <route id="r121" edges="E25 337004201.1931 E7 E6.275 E0.916 E0.1396 E0.4824 E0.5333 E0.19627 E0.19858 E0.32034 E0.32333 E0.32333.8405 E0.32333.8754 E0.32333.9203 E43 E48 E5"/>
    <route id="r122" edges="E25 337004201.1931 E7 E6.275 E0.916 E0.1396 E0.4824 E0.5333 E0.19627 E0.19858 E0.32034 E0.32333 E10 E11.118 E17.485 199861688#4.258 E19"/>
    <route id="r123" edges="E25 337004201.1931 E7 E6.275 E0.916 E0.1396 E0.4824 E0.5333 E0.19627 E0.19858 E0.32034 E0.32333 E10 E10.81 E10.552 199861689#7 E16"/>
    <route id="r124" edges="E25 337004201.1931 E7 E6.275 E0.916 E0.1396 E0.4824 E0.5333 E0.19627 E0.19858 E37 E42 E3"/>
    <route id="r125" edges="E25 337004201.1931 E7 E6.275 E0.916 E0.1396 E0.4824 E0.5333 E31 E35 E4"/>
    <route id="r126" edges="E25 337004201.1931 E7 E6.275 E0.916 E0.1396 E26 E30 E8"/>
    <route id="r127" edges="E25 337004201.1931 E7 E7.245 E1.38124.12551.14665.4558 E23"/>
    <route id="r128" edges="E20 337004162#0 337004162#1 E4.49 E5.196 E0.1396 E0.4824 E0.5333 E0.19627 E0.19858 E0.32034 E0.32333 E0.32333.8405 E0.32333.8754 E0.32333.9203 E0.32333.17767 E0.32333.18080 E0.32333.25024 E0.32333.25348 E0.32333.36044 E18 E19.193 E25.409 719033692#0.229 E15"/>
    <route id="r129" edges="E20 337004162#0 337004162#1 E4.49 E5.196 E0.1396 E0.4824 E0.5333 E0.19627 E0.19858 E0.32034 E0.32333 E0.32333.8405 E0.32333.8754 E0.32333.9203 E0.32333.17767 E0.32333.18080 E0.32333.25024 E0.32333.25348 E0.32333.36044 E0.32333.36783 E0.32333.37236 E0.32333.37752 E11"/>
    <route id="r130" edges="E20 337004162#0 337004162#1 E4.49 E5.196 E0.1396 E0.4824 E0.5333 E0.19627 E0.19858 E0.32034 E0.32333 E0.32333.8405 E0.32333.8754 E0.32333.9203 E0.32333.17767 E0.32333.18080 E0.32333.25024 E0.32333.25348 E0.32333.36044 E18 E18.167 E18.467 719033689.710 E13"/>
    <route id="r131" edges="E20 337004162#0 337004162#1 E4.49 E5.196 E0.1396 E0.4824 E0.5333 E0.19627 E0.19858 E0.32034 E0.32333 E0.32333.8405 E0.32333.8754 E0.32333.9203 E0.32333.17767 E0.32333.18080 E49 E54 E6"/>
    <route id="r132" edges="E20 337004162#0 337004162#1 E4.49 E5.196 E0.1396 E0.4824 E0.5333 E0.19627 E0.19858 E0.32034 E0.32333 E0.32333.8405 E0.32333.8754 E0.32333.9203 E43 E48 E5"/>
    <route id="r133" edges="E20 337004162#0 337004162#1 E4.49 E5.196 E0.1396 E0.4824 E0.5333 E0.19627 E0.19858 E0.32034 E0.32333 E10 E11.118 E17.485 199861688#4.258 E19"/>
    <route id="r134" edges="E20 337004162#0 337004162#1 E4.49 E5.196 E0.1396 E0.4824 E0.5333 E0.19627 E0.19858 E0.32034 E0.32333 E10 E10.81 E10.552 199861689#7 E16"/>
    <route id="r135" edges="E20 337004162#0 337004162#1 E4.49 E5.196 E0.1396 E0.4824 E0.5333 E0.19627 E0.19858 E37 E42 E3"/>
    <route id="r136" edges="E20 337004162#0 337004162#1 E4.49 E5.196 E0.1396 E0.4824 E0.5333 E31 E35 E4"/>
    <route id="r137" edges="E20 337004162#0 337004162#1 E4.49 E5.196 E0.1396 E26 E30 E8"/>
    <route id="r138" edges="E20 337004162#0 337004162#1 E4.49 E4.203 E1.38124.12551.14665.4387 E1.38124.12551.14665.4558 E23"/>
    <route id="r139" edges="E23 E0 E0.333 E0.916 E0.1396 E0.4824 E0.5333 E0.19627 E0.19858 E0.32034 E0.32333 E0.32333.8405 E0.32333.8754 E0.32333.9203 E0.32333.17767 E0.32333.18080 E0.32333.25024 E0.32333.25348 E0.32333.36044 E18 E19.193 E25.409 719033692#0.229 E15"/>
    <route id="r140" edges="E23 E0 E0.333 E0.916 E0.1396 E0.4824 E0.5333 E0.19627 E0.19858 E0.32034 E0.32333 E0.32333.8405 E0.32333.8754 E0.32333.9203 E0.32333.17767 E0.32333.18080 E0.32333.25024 E0.32333.25348 E0.32333.36044 E0.32333.36783 E0.32333.37236 E0.32333.37752 E11"/>
    <route id="r141" edges="E23 E0 E0.333 E0.916 E0.1396 E0.4824 E0.5333 E0.19627 E0.19858 E0.32034 E0.32333 E0.32333.8405 E0.32333.8754 E0.32333.9203 E0.32333.17767 E0.32333.18080 E0.32333.25024 E0.32333.25348 E0.32333.36044 E18 E18.167 E18.467 719033689.710 E13"/>
    <route id="r142" edges="E23 E0 E0.333 E0.916 E0.1396 E0.4824 E0.5333 E0.19627 E0.19858 E0.32034 E0.32333 E0.32333.8405 E0.32333.8754 E0.32333.9203 E0.32333.17767 E0.32333.18080 E49 E54 E6"/>
    <route id="r143" edges="E23 E0 E0.333 E0.916 E0.1396 E0.4824 E0.5333 E0.19627 E0.19858 E0.32034 E0.32333 E0.32333.8405 E0.32333.8754 E0.32333.9203 E43 E48 E5"/>
    <route id="r144" edges="E23 E0 E0.333 E0.916 E0.1396 E0.4824 E0.5333 E0.19627 E0.19858 E0.32034 E0.32333 E10 E11.118 E17.485 199861688#4.258 E19"/>
    <route id="r145" edges="E23 E0 E0.333 E0.916 E0.1396 E0.4824 E0.5333 E0.19627 E0.19858 E0.32034 E0.32333 E10 E10.81 E10.552 199861689#7 E16"/>
    <route id="r146" edges="E23 E0 E0.333 E0.916 E0.1396 E0.4824 E0.5333 E0.19627 E0.19858 E37 E42 E3"/>
    <route id="r147" edges="E23 E0 E0.333 E0.916 E0.1396 E0.4824 E0.5333 E31 E35 E4"/>
    <route id="r148" edges="E23 E0 E0.333 E0.916 E0.1396 E26 E30 E8"/>
    <route id="r149" edges="E23 E0 E2 E2.124 E9.587 337004188.720 E25"/>
    <route id="r150" edges="E23 E0 E2 E3.155 E8.757 337004171#1 E20"/>

    <flow id="f1" begin="0" end="2000" number="80" route="r1" type="mixed" departLane="random" departPosLat="random"/>
    <flow id="f2" begin="0" end="2000" number="20" route="r2" type="mixed" departLane="random" departPosLat="random"/>
    <flow id="f3" begin="0" end="2000" number="20" route="r3" type="mixed" departLane="random" departPosLat="random"/>
    <flow id="f4" begin="0" end="2000" number="40" route="r4" type="mixed" departLane="random" departPosLat="random"/>
    <flow id="f5" begin="0" end="2000" number="40" route="r5" type="mixed" departLane="random" departPosLat="random"/>
    <flow id="f6" begin="0" end="2000" number="20" route="r6" type="mixed" departLane="random" departPosLat="random"/>
    <flow id="f7" begin="0" end="2000" number="20" route="r7" type="mixed" departLane="random" departPosLat="random"/>
    <flow id="f8" begin="0" end="2000" number="20" route="r8" type="mixed" departLane="random" departPosLat="random"/>
    <flow id="f9" begin="0" end="2000" number="40" route="r9" type="mixed" departLane="random" departPosLat="random"/>
    <flow id="f10" begin="0" end="2000" number="40" route="r10" type="mixed" departLane="random" departPosLat="random"/>
    <flow id="f11" begin="0" end="2000" number="80" route="r11" type="mixed" departLane="random" departPosLat="random"/>
    <flow id="f12" begin="0" end="2000" number="80" route="r12" type="mixed" departLane="random" departPosLat="random"/>
    <flow id="f13" begin="0" end="2000" number="80" route="r13" type="mixed" departLane="random" departPosLat="random"/>
    <flow id="f14" begin="0" end="2000" number="40" route="r14" type="mixed" departLane="random" departPosLat="random"/>
    <flow id="f15" begin="0" end="2000" number="40" route="r15" type="mixed" departLane="random" departPosLat="random"/>
    <flow id="f16" begin="0" end="2000" number="80" route="r16" type="mixed" departLane="random" departPosLat="random"/>
    <flow id="f17" begin="0" end="2000" number="80" route="r17" type="mixed" departLane="random" departPosLat="random"/>
    <flow id="f18" begin="0" end="2000" number="40" route="r18" type="mixed" departLane="random" departPosLat="random"/>
    <flow id="f19" begin="0" end="2000" number="40" route="r19" type="mixed" departLane="random" departPosLat="random"/>
    <flow id="f20" begin="0" end="2000" number="40" route="r20" type="mixed" departLane="random" departPosLat="random"/>
    <flow id="f21" begin="0" end="2000" number="80" route="r21" type="mixed" departLane="random" departPosLat="random"/>
    <flow id="f22" begin="0" end="2000" number="80" route="r22" type="mixed" departLane="random" departPosLat="random"/>
    <flow id="f23" begin="0" end="2000" number="160" route="r23" type="mixed" departLane="random" departPosLat="random"/>
    <flow id="f24" begin="0" end="2000" number="80" route="r24" type="mixed" departLane="random" departPosLat="random"/>
    <flow id="f25" begin="0" end="2000" number="20" route="r25" type="mixed" departLane="random" departPosLat="random"/>
    <flow id="f26" begin="0" end="2000" number="20" route="r26" type="mixed" departLane="random" departPosLat="random"/>
    <flow id="f27" begin="0" end="2000" number="40" route="r27" type="mixed" departLane="random" departPosLat="random"/>
    <flow id="f28" begin="0" end="2000" number="40" route="r28" type="mixed" departLane="random" departPosLat="random"/>
    <flow id="f29" begin="0" end="2000" number="20" route="r29" type="mixed" departLane="random" departPosLat="random"/>
    <flow id="f30" begin="0" end="2000" number="20" route="r30" type="mixed" departLane="random" departPosLat="random"/>
    <flow id="f31" begin="0" end="2000" number="20" route="r31" type="mixed" departLane="random" departPosLat="random"/>
    <flow id="f32" begin="0" end="2000" number="40" route="r32" type="mixed" departLane="random" departPosLat="random"/>